
     RDKit          3D

 45 44  0  0  0  0  0  0  0  0999 V2000
   -9.1521    6.4851   31.9293 C   0  0  0  0  0  0  0  0  0  0  0  0
   -8.4576    6.4709   31.1548 C   0  0  0  0  0  0  0  0  0  0  0  0
   -7.7940    6.8744   30.8257 C   0  0  1  0  0  0  0  0  0  0  0  0
   -7.5805    6.6070   31.5721 C   0  0  0  0  0  0  0  0  0  0  0  0
   -6.7079    7.1368   30.1056 C   0  0  1  0  0  0  0  0  0  0  0  0
   -7.2221    8.0034   29.2599 N   0  0  0  0  0  0  0  0  0  0  0  0
   -6.7370    9.0654   28.8568 C   0  0  0  0  0  0  0  0  0  0  0  0
   -7.1749    9.4654   27.6133 C   0  0  0  0  0  0  0  0  0  0  0  0
   -6.4275   10.0146   29.4387 O   0  0  0  0  0  0  0  0  0  0  0  0
   -5.7749    7.2484   30.8156 C   0  0  0  0  0  0  0  0  0  0  0  0
   -5.1691    6.8414   31.6575 O   0  0  0  0  0  0  0  0  0  0  0  0
   -4.8619    7.2583   30.3396 N   0  0  0  0  0  0  0  0  0  0  0  0
   -4.0929    7.6340   30.3619 C   0  0  1  0  0  0  0  0  0  0  0  0
   -3.5914    6.9844   29.2312 C   0  0  0  0  0  0  0  0  0  0  0  0
   -3.2010    6.1637   28.6133 C   0  0  0  0  0  0  0  0  0  0  0  0
   -2.7230    5.3372   27.7753 C   0  0  0  0  0  0  0  0  0  0  0  0
   -2.3829    4.8856   27.8585 O   0  0  0  0  0  0  0  0  0  0  0  0
   -2.5017    4.9923   27.6794 O   0  0  0  0  0  0  0  0  0  0  0  0
   -3.3832    8.8121   30.9760 C   0  0  0  0  0  0  0  0  0  0  0  0
   -2.5643    9.3716   30.9090 O   0  0  0  0  0  0  0  0  0  0  0  0
   -3.9316    9.5144   31.5932 N   0  0  0  0  0  0  0  0  0  0  0  0
   -4.0271   10.6885   32.4406 C   0  0  1  0  0  0  0  0  0  0  0  0
   -4.7486   11.7047   32.3387 C   0  0  0  0  0  0  0  0  0  0  0  0
   -5.1051   12.5369   31.9951 C   0  0  0  0  0  0  0  0  0  0  0  0
   -5.2593   13.6702   31.6884 C   0  0  0  0  0  0  0  0  0  0  0  0
   -5.3212   14.3267   31.4919 O   0  0  0  0  0  0  0  0  0  0  0  0
   -5.2839   14.2401   31.5862 O   0  0  0  0  0  0  0  0  0  0  0  0
   -3.3813   10.2408   33.9359 C   0  0  0  0  0  0  0  0  0  0  0  0
   -3.1753    9.2120   34.5131 O   0  0  0  0  0  0  0  0  0  0  0  0
   -2.9578   10.8358   34.6797 N   0  0  0  0  0  0  0  0  0  0  0  0
   -2.5711   10.9589   36.0994 C   0  0  2  0  0  0  0  0  0  0  0  0
   -3.5510   11.5104   36.4915 C   0  0  0  0  0  0  0  0  0  0  0  0
   -3.7368   12.1973   35.5225 O   0  0  0  0  0  0  0  0  0  0  0  0
   -4.1281   11.5603   37.8296 N   0  0  0  0  0  0  0  0  0  0  0  0
   -4.8937   12.3734   38.5601 C   0  0  1  0  0  0  0  0  0  0  0  0
   -5.6105   11.7067   39.0342 C   0  0  0  0  0  0  0  0  0  0  0  0
   -6.3356   11.3761   38.7356 C   0  0  0  0  0  0  0  0  0  0  0  0
   -6.1691   11.3923   38.7250 O   0  0  0  0  0  0  0  0  0  0  0  0
   -6.8556   10.9008   38.6127 O   0  0  0  0  0  0  0  0  0  0  0  0
   -4.5992   13.5737   39.2411 C   0  0  0  0  0  0  0  0  0  0  0  0
   -4.2749   13.9947   39.4558 O   0  0  0  0  0  0  0  0  0  0  0  0
   -4.7172   14.0888   39.4611 O   0  0  0  0  0  0  0  0  0  0  0  0
   -1.1498   11.0243   36.5338 C   0  0  0  0  0  0  0  0  0  0  0  0
   -0.4063   11.3561   36.3930 C   0  0  0  0  0  0  0  0  0  0  0  0
   -0.4063   11.3578   36.3926 C   0  0  0  0  0  0  0  0  0  0  0  0
  1  2  1  0
  2  3  1  0
  3  4  1  6
  3  5  1  0
  5  6  1  6
  6  7  1  0
  7  8  1  0
  7  9  2  0
  5 10  1  0
 10 11  2  0
 10 12  1  0
 12 13  1  0
 13 14  1  6
 14 15  1  0
 15 16  1  0
 16 17  2  0
 16 18  1  0
 13 19  1  0
 19 20  2  0
 19 21  1  0
 21 22  1  0
 22 23  1  1
 23 24  1  0
 24 25  1  0
 25 26  2  0
 25 27  1  0
 22 28  1  0
 28 29  2  0
 28 30  1  0
 31 30  1  6
 31 32  1  0
 32 33  2  0
 32 34  1  0
 34 35  1  0
 35 36  1  1
 36 37  1  0
 37 38  2  0
 37 39  1  0
 35 40  1  0
 40 41  2  0
 40 42  1  0
 31 43  1  0
 43 44  1  0
 43 45  1  0
M  END
$$$$
